/*--------------------------------*- C++ -*----------------------------------*\
  =========                 |
  \\      /  F ield         | OpenFOAM: The Open Source CFD Toolbox
   \\    /   O peration     | Website:  https://openfoam.org
    \\  /    A nd           | Version:  12
     \\/     M anipulation  |
\*---------------------------------------------------------------------------*/
FoamFile
{
    format      binary;
    class       volScalarField;
    location    "0";
    object      alphat;
}
// * * * * * * * * * * * * * * * * * * * * * * * * * * * * * * * * * * * * * //

dimensions      [1 -1 -1 0 0 0 0];

internalField   uniform 1e-08;

boundaryField
{
    inlet
    {
        type            calculated;
        value           uniform 1e-08;
    }
    outlet
    {
        type            calculated;
        value           uniform 1e-08;
    }
    lowerWall
    {
        type            symmetryPlane;
    }
    upperWall
    {
        type            symmetryPlane;
    }
    pipe
    {
        type            compressible::alphatWallFunction;
        Prt             0.85;
        value           uniform 1e-08;
    }
    defaultFaces
    {
        type            empty;
    }
}


// ************************************************************************* //
